<routes>
   <vType id="vtype0" accel="2.0" decel="6.5" speedDev = "0.1" sigma="0.5" length="2.5" maxSpeed="20" color="1,1,0"/>

   <route id="route0" edges="gneE0 gneE1 gneE2 gneE3 gneE4 gneE5 gneE6 gneE7"/>
   <route id="route1" edges="-gneE7 -gneE6 -gneE5 -gneE4 -gneE3 -gneE2 -gneE1 -gneE0"/>

   <flow id="flow0" type="vtype0" route="route0" begin="0" end ="600" vehsPerHour="1500" departLane="random"/>
   <flow id="flow1" type="vtype0" route="route1" begin="0" end ="600" vehsPerHour="1500" departLane="random"/>
</routes>
