<?xml version="1.0" encoding="UTF-8"?>

<!-- generated on Wed 26 Feb 2020 04:13:15 AM UTC by Eclipse SUMO netedit Version 1.4.0
<configuration xmlns:xsi="http://www.w3.org/2001/XMLSchema-instance" xsi:noNamespaceSchemaLocation="http://sumo.dlr.de/xsd/netconvertConfiguration.xsd">

    <output>
        <output-file value="/home/veins/src/veins/examples/veins2/myVeinsAPP.net.xml"/>
    </output>

    <processing>
        <offset.disable-normalization value="true"/>
    </processing>

    <junctions>
        <no-turnarounds value="true"/>
    </junctions>

    <report>
        <aggregate-warnings value="5"/>
    </report>

</configuration>
-->

<net version="1.3" junctionCornerDetail="5" limitTurnSpeed="5.50" xmlns:xsi="http://www.w3.org/2001/XMLSchema-instance" xsi:noNamespaceSchemaLocation="http://sumo.dlr.de/xsd/net_file.xsd">

    <location netOffset="0.00,0.00" convBoundary="0.00,1000.00,10000.00,1000.00" origBoundary="10000000000.00,10000000000.00,-10000000000.00,-10000000000.00" projParameter="!"/>

    <edge id=":1_0" function="internal">
        <lane id=":1_0_0" index="0" speed="20.00" length="0.10" shape="1250.00,1004.80 1250.00,1004.80"/>
        <lane id=":1_0_1" index="1" speed="20.00" length="0.10" shape="1250.00,1001.60 1250.00,1001.60"/>
    </edge>
    <edge id=":1_2" function="internal">
        <lane id=":1_2_0" index="0" speed="20.00" length="0.10" shape="1250.00,995.20 1250.00,995.20"/>
        <lane id=":1_2_1" index="1" speed="20.00" length="0.10" shape="1250.00,998.40 1250.00,998.40"/>
    </edge>
    <edge id=":2_0" function="internal">
        <lane id=":2_0_0" index="0" speed="20.00" length="0.10" shape="2500.00,1004.80 2500.00,1004.80"/>
        <lane id=":2_0_1" index="1" speed="20.00" length="0.10" shape="2500.00,1001.60 2500.00,1001.60"/>
    </edge>
    <edge id=":2_2" function="internal">
        <lane id=":2_2_0" index="0" speed="20.00" length="0.10" shape="2500.00,995.20 2500.00,995.20"/>
        <lane id=":2_2_1" index="1" speed="20.00" length="0.10" shape="2500.00,998.40 2500.00,998.40"/>
    </edge>
    <edge id=":3_0" function="internal">
        <lane id=":3_0_0" index="0" speed="20.00" length="0.10" shape="3750.00,1004.80 3750.00,1004.80"/>
        <lane id=":3_0_1" index="1" speed="20.00" length="0.10" shape="3750.00,1001.60 3750.00,1001.60"/>
    </edge>
    <edge id=":3_2" function="internal">
        <lane id=":3_2_0" index="0" speed="20.00" length="0.10" shape="3750.00,995.20 3750.00,995.20"/>
        <lane id=":3_2_1" index="1" speed="20.00" length="0.10" shape="3750.00,998.40 3750.00,998.40"/>
    </edge>
    <edge id=":4_0" function="internal">
        <lane id=":4_0_0" index="0" speed="20.00" length="0.10" shape="5000.00,1004.80 5000.00,1004.80"/>
        <lane id=":4_0_1" index="1" speed="20.00" length="0.10" shape="5000.00,1001.60 5000.00,1001.60"/>
    </edge>
    <edge id=":4_2" function="internal">
        <lane id=":4_2_0" index="0" speed="20.00" length="0.10" shape="5000.00,995.20 5000.00,995.20"/>
        <lane id=":4_2_1" index="1" speed="20.00" length="0.10" shape="5000.00,998.40 5000.00,998.40"/>
    </edge>
    <edge id=":5_0" function="internal">
        <lane id=":5_0_0" index="0" speed="20.00" length="0.10" shape="6250.00,1004.80 6250.00,1004.80"/>
        <lane id=":5_0_1" index="1" speed="20.00" length="0.10" shape="6250.00,1001.60 6250.00,1001.60"/>
    </edge>
    <edge id=":5_2" function="internal">
        <lane id=":5_2_0" index="0" speed="20.00" length="0.10" shape="6250.00,995.20 6250.00,995.20"/>
        <lane id=":5_2_1" index="1" speed="20.00" length="0.10" shape="6250.00,998.40 6250.00,998.40"/>
    </edge>
    <edge id=":6_0" function="internal">
        <lane id=":6_0_0" index="0" speed="20.00" length="0.10" shape="7500.00,1004.80 7500.00,1004.80"/>
        <lane id=":6_0_1" index="1" speed="20.00" length="0.10" shape="7500.00,1001.60 7500.00,1001.60"/>
    </edge>
    <edge id=":6_2" function="internal">
        <lane id=":6_2_0" index="0" speed="20.00" length="0.10" shape="7500.00,995.20 7500.00,995.20"/>
        <lane id=":6_2_1" index="1" speed="20.00" length="0.10" shape="7500.00,998.40 7500.00,998.40"/>
    </edge>
    <edge id=":7_0" function="internal">
        <lane id=":7_0_0" index="0" speed="20.00" length="0.10" shape="8750.00,1004.80 8750.00,1004.80"/>
        <lane id=":7_0_1" index="1" speed="20.00" length="0.10" shape="8750.00,1001.60 8750.00,1001.60"/>
    </edge>
    <edge id=":7_2" function="internal">
        <lane id=":7_2_0" index="0" speed="20.00" length="0.10" shape="8750.00,995.20 8750.00,995.20"/>
        <lane id=":7_2_1" index="1" speed="20.00" length="0.10" shape="8750.00,998.40 8750.00,998.40"/>
    </edge>

    <edge id="-gneE0" from="1" to="0" priority="-1">
        <lane id="-gneE0_0" index="0" speed="20.00" length="1250.00" shape="1250.00,1004.80 0.00,1004.80"/>
        <lane id="-gneE0_1" index="1" speed="20.00" length="1250.00" shape="1250.00,1001.60 0.00,1001.60"/>
    </edge>
    <edge id="-gneE1" from="2" to="1" priority="-1">
        <lane id="-gneE1_0" index="0" speed="20.00" length="1250.00" shape="2500.00,1004.80 1250.00,1004.80"/>
        <lane id="-gneE1_1" index="1" speed="20.00" length="1250.00" shape="2500.00,1001.60 1250.00,1001.60"/>
    </edge>
    <edge id="-gneE2" from="3" to="2" priority="-1">
        <lane id="-gneE2_0" index="0" speed="20.00" length="1250.00" shape="3750.00,1004.80 2500.00,1004.80"/>
        <lane id="-gneE2_1" index="1" speed="20.00" length="1250.00" shape="3750.00,1001.60 2500.00,1001.60"/>
    </edge>
    <edge id="-gneE3" from="4" to="3" priority="-1">
        <lane id="-gneE3_0" index="0" speed="20.00" length="1250.00" shape="5000.00,1004.80 3750.00,1004.80"/>
        <lane id="-gneE3_1" index="1" speed="20.00" length="1250.00" shape="5000.00,1001.60 3750.00,1001.60"/>
    </edge>
    <edge id="-gneE4" from="5" to="4" priority="-1">
        <lane id="-gneE4_0" index="0" speed="20.00" length="1250.00" shape="6250.00,1004.80 5000.00,1004.80"/>
        <lane id="-gneE4_1" index="1" speed="20.00" length="1250.00" shape="6250.00,1001.60 5000.00,1001.60"/>
    </edge>
    <edge id="-gneE5" from="6" to="5" priority="-1">
        <lane id="-gneE5_0" index="0" speed="20.00" length="1250.00" shape="7500.00,1004.80 6250.00,1004.80"/>
        <lane id="-gneE5_1" index="1" speed="20.00" length="1250.00" shape="7500.00,1001.60 6250.00,1001.60"/>
    </edge>
    <edge id="-gneE6" from="7" to="6" priority="-1">
        <lane id="-gneE6_0" index="0" speed="20.00" length="1250.00" shape="8750.00,1004.80 7500.00,1004.80"/>
        <lane id="-gneE6_1" index="1" speed="20.00" length="1250.00" shape="8750.00,1001.60 7500.00,1001.60"/>
    </edge>
    <edge id="-gneE7" from="8" to="7" priority="-1">
        <lane id="-gneE7_0" index="0" speed="20.00" length="1250.00" shape="10000.00,1004.80 8750.00,1004.80"/>
        <lane id="-gneE7_1" index="1" speed="20.00" length="1250.00" shape="10000.00,1001.60 8750.00,1001.60"/>
    </edge>
    <edge id="gneE0" from="0" to="1" priority="-1">
        <lane id="gneE0_0" index="0" speed="20.00" length="1250.00" shape="0.00,995.20 1250.00,995.20"/>
        <lane id="gneE0_1" index="1" speed="20.00" length="1250.00" shape="0.00,998.40 1250.00,998.40"/>
    </edge>
    <edge id="gneE1" from="1" to="2" priority="-1">
        <lane id="gneE1_0" index="0" speed="20.00" length="1250.00" shape="1250.00,995.20 2500.00,995.20"/>
        <lane id="gneE1_1" index="1" speed="20.00" length="1250.00" shape="1250.00,998.40 2500.00,998.40"/>
    </edge>
    <edge id="gneE2" from="2" to="3" priority="-1">
        <lane id="gneE2_0" index="0" speed="20.00" length="1250.00" shape="2500.00,995.20 3750.00,995.20"/>
        <lane id="gneE2_1" index="1" speed="20.00" length="1250.00" shape="2500.00,998.40 3750.00,998.40"/>
    </edge>
    <edge id="gneE3" from="3" to="4" priority="-1">
        <lane id="gneE3_0" index="0" speed="20.00" length="1250.00" shape="3750.00,995.20 5000.00,995.20"/>
        <lane id="gneE3_1" index="1" speed="20.00" length="1250.00" shape="3750.00,998.40 5000.00,998.40"/>
    </edge>
    <edge id="gneE4" from="4" to="5" priority="-1">
        <lane id="gneE4_0" index="0" speed="20.00" length="1250.00" shape="5000.00,995.20 6250.00,995.20"/>
        <lane id="gneE4_1" index="1" speed="20.00" length="1250.00" shape="5000.00,998.40 6250.00,998.40"/>
    </edge>
    <edge id="gneE5" from="5" to="6" priority="-1">
        <lane id="gneE5_0" index="0" speed="20.00" length="1250.00" shape="6250.00,995.20 7500.00,995.20"/>
        <lane id="gneE5_1" index="1" speed="20.00" length="1250.00" shape="6250.00,998.40 7500.00,998.40"/>
    </edge>
    <edge id="gneE6" from="6" to="7" priority="-1">
        <lane id="gneE6_0" index="0" speed="20.00" length="1250.00" shape="7500.00,995.20 8750.00,995.20"/>
        <lane id="gneE6_1" index="1" speed="20.00" length="1250.00" shape="7500.00,998.40 8750.00,998.40"/>
    </edge>
    <edge id="gneE7" from="7" to="8" priority="-1">
        <lane id="gneE7_0" index="0" speed="20.00" length="1250.00" shape="8750.00,995.20 10000.00,995.20"/>
        <lane id="gneE7_1" index="1" speed="20.00" length="1250.00" shape="8750.00,998.40 10000.00,998.40"/>
    </edge>

    <junction id="0" type="dead_end" x="0.00" y="1000.00" incLanes="-gneE0_0 -gneE0_1" intLanes="" shape="0.00,1000.00 0.00,1006.40 0.00,1000.00"/>
    <junction id="1" type="priority" x="1250.00" y="1000.00" incLanes="-gneE1_0 -gneE1_1 gneE0_0 gneE0_1" intLanes=":1_0_0 :1_0_1 :1_2_0 :1_2_1" shape="1250.00,1006.40 1250.00,993.60 1250.00,1006.40">
        <request index="0" response="0000" foes="0000" cont="0"/>
        <request index="1" response="0000" foes="0000" cont="0"/>
        <request index="2" response="0000" foes="0000" cont="0"/>
        <request index="3" response="0000" foes="0000" cont="0"/>
    </junction>
    <junction id="2" type="priority" x="2500.00" y="1000.00" incLanes="-gneE2_0 -gneE2_1 gneE1_0 gneE1_1" intLanes=":2_0_0 :2_0_1 :2_2_0 :2_2_1" shape="2500.00,1006.40 2500.00,993.60 2500.00,1006.40">
        <request index="0" response="0000" foes="0000" cont="0"/>
        <request index="1" response="0000" foes="0000" cont="0"/>
        <request index="2" response="0000" foes="0000" cont="0"/>
        <request index="3" response="0000" foes="0000" cont="0"/>
    </junction>
    <junction id="3" type="priority" x="3750.00" y="1000.00" incLanes="-gneE3_0 -gneE3_1 gneE2_0 gneE2_1" intLanes=":3_0_0 :3_0_1 :3_2_0 :3_2_1" shape="3750.00,1006.40 3750.00,993.60 3750.00,1006.40">
        <request index="0" response="0000" foes="0000" cont="0"/>
        <request index="1" response="0000" foes="0000" cont="0"/>
        <request index="2" response="0000" foes="0000" cont="0"/>
        <request index="3" response="0000" foes="0000" cont="0"/>
    </junction>
    <junction id="4" type="priority" x="5000.00" y="1000.00" incLanes="-gneE4_0 -gneE4_1 gneE3_0 gneE3_1" intLanes=":4_0_0 :4_0_1 :4_2_0 :4_2_1" shape="5000.00,1006.40 5000.00,993.60 5000.00,1006.40">
        <request index="0" response="0000" foes="0000" cont="0"/>
        <request index="1" response="0000" foes="0000" cont="0"/>
        <request index="2" response="0000" foes="0000" cont="0"/>
        <request index="3" response="0000" foes="0000" cont="0"/>
    </junction>
    <junction id="5" type="priority" x="6250.00" y="1000.00" incLanes="-gneE5_0 -gneE5_1 gneE4_0 gneE4_1" intLanes=":5_0_0 :5_0_1 :5_2_0 :5_2_1" shape="6250.00,1006.40 6250.00,993.60 6250.00,1006.40">
        <request index="0" response="0000" foes="0000" cont="0"/>
        <request index="1" response="0000" foes="0000" cont="0"/>
        <request index="2" response="0000" foes="0000" cont="0"/>
        <request index="3" response="0000" foes="0000" cont="0"/>
    </junction>
    <junction id="6" type="priority" x="7500.00" y="1000.00" incLanes="-gneE6_0 -gneE6_1 gneE5_0 gneE5_1" intLanes=":6_0_0 :6_0_1 :6_2_0 :6_2_1" shape="7500.00,1006.40 7500.00,993.60 7500.00,1006.40">
        <request index="0" response="0000" foes="0000" cont="0"/>
        <request index="1" response="0000" foes="0000" cont="0"/>
        <request index="2" response="0000" foes="0000" cont="0"/>
        <request index="3" response="0000" foes="0000" cont="0"/>
    </junction>
    <junction id="7" type="priority" x="8750.00" y="1000.00" incLanes="-gneE7_0 -gneE7_1 gneE6_0 gneE6_1" intLanes=":7_0_0 :7_0_1 :7_2_0 :7_2_1" shape="8750.00,1006.40 8750.00,993.60 8750.00,1006.40">
        <request index="0" response="0000" foes="0000" cont="0"/>
        <request index="1" response="0000" foes="0000" cont="0"/>
        <request index="2" response="0000" foes="0000" cont="0"/>
        <request index="3" response="0000" foes="0000" cont="0"/>
    </junction>
    <junction id="8" type="dead_end" x="10000.00" y="1000.00" incLanes="gneE7_0 gneE7_1" intLanes="" shape="10000.00,1000.00 10000.00,993.60 10000.00,1000.00"/>

    <connection from="-gneE1" to="-gneE0" fromLane="0" toLane="0" via=":1_0_0" dir="s" state="M"/>
    <connection from="-gneE1" to="-gneE0" fromLane="1" toLane="1" via=":1_0_1" dir="s" state="M"/>
    <connection from="-gneE2" to="-gneE1" fromLane="0" toLane="0" via=":2_0_0" dir="s" state="M"/>
    <connection from="-gneE2" to="-gneE1" fromLane="1" toLane="1" via=":2_0_1" dir="s" state="M"/>
    <connection from="-gneE3" to="-gneE2" fromLane="0" toLane="0" via=":3_0_0" dir="s" state="M"/>
    <connection from="-gneE3" to="-gneE2" fromLane="1" toLane="1" via=":3_0_1" dir="s" state="M"/>
    <connection from="-gneE4" to="-gneE3" fromLane="0" toLane="0" via=":4_0_0" dir="s" state="M"/>
    <connection from="-gneE4" to="-gneE3" fromLane="1" toLane="1" via=":4_0_1" dir="s" state="M"/>
    <connection from="-gneE5" to="-gneE4" fromLane="0" toLane="0" via=":5_0_0" dir="s" state="M"/>
    <connection from="-gneE5" to="-gneE4" fromLane="1" toLane="1" via=":5_0_1" dir="s" state="M"/>
    <connection from="-gneE6" to="-gneE5" fromLane="0" toLane="0" via=":6_0_0" dir="s" state="M"/>
    <connection from="-gneE6" to="-gneE5" fromLane="1" toLane="1" via=":6_0_1" dir="s" state="M"/>
    <connection from="-gneE7" to="-gneE6" fromLane="0" toLane="0" via=":7_0_0" dir="s" state="M"/>
    <connection from="-gneE7" to="-gneE6" fromLane="1" toLane="1" via=":7_0_1" dir="s" state="M"/>
    <connection from="gneE0" to="gneE1" fromLane="0" toLane="0" via=":1_2_0" dir="s" state="M"/>
    <connection from="gneE0" to="gneE1" fromLane="1" toLane="1" via=":1_2_1" dir="s" state="M"/>
    <connection from="gneE1" to="gneE2" fromLane="0" toLane="0" via=":2_2_0" dir="s" state="M"/>
    <connection from="gneE1" to="gneE2" fromLane="1" toLane="1" via=":2_2_1" dir="s" state="M"/>
    <connection from="gneE2" to="gneE3" fromLane="0" toLane="0" via=":3_2_0" dir="s" state="M"/>
    <connection from="gneE2" to="gneE3" fromLane="1" toLane="1" via=":3_2_1" dir="s" state="M"/>
    <connection from="gneE3" to="gneE4" fromLane="0" toLane="0" via=":4_2_0" dir="s" state="M"/>
    <connection from="gneE3" to="gneE4" fromLane="1" toLane="1" via=":4_2_1" dir="s" state="M"/>
    <connection from="gneE4" to="gneE5" fromLane="0" toLane="0" via=":5_2_0" dir="s" state="M"/>
    <connection from="gneE4" to="gneE5" fromLane="1" toLane="1" via=":5_2_1" dir="s" state="M"/>
    <connection from="gneE5" to="gneE6" fromLane="0" toLane="0" via=":6_2_0" dir="s" state="M"/>
    <connection from="gneE5" to="gneE6" fromLane="1" toLane="1" via=":6_2_1" dir="s" state="M"/>
    <connection from="gneE6" to="gneE7" fromLane="0" toLane="0" via=":7_2_0" dir="s" state="M"/>
    <connection from="gneE6" to="gneE7" fromLane="1" toLane="1" via=":7_2_1" dir="s" state="M"/>

    <connection from=":1_0" to="-gneE0" fromLane="0" toLane="0" dir="s" state="M"/>
    <connection from=":1_0" to="-gneE0" fromLane="1" toLane="1" dir="s" state="M"/>
    <connection from=":1_2" to="gneE1" fromLane="0" toLane="0" dir="s" state="M"/>
    <connection from=":1_2" to="gneE1" fromLane="1" toLane="1" dir="s" state="M"/>
    <connection from=":2_0" to="-gneE1" fromLane="0" toLane="0" dir="s" state="M"/>
    <connection from=":2_0" to="-gneE1" fromLane="1" toLane="1" dir="s" state="M"/>
    <connection from=":2_2" to="gneE2" fromLane="0" toLane="0" dir="s" state="M"/>
    <connection from=":2_2" to="gneE2" fromLane="1" toLane="1" dir="s" state="M"/>
    <connection from=":3_0" to="-gneE2" fromLane="0" toLane="0" dir="s" state="M"/>
    <connection from=":3_0" to="-gneE2" fromLane="1" toLane="1" dir="s" state="M"/>
    <connection from=":3_2" to="gneE3" fromLane="0" toLane="0" dir="s" state="M"/>
    <connection from=":3_2" to="gneE3" fromLane="1" toLane="1" dir="s" state="M"/>
    <connection from=":4_0" to="-gneE3" fromLane="0" toLane="0" dir="s" state="M"/>
    <connection from=":4_0" to="-gneE3" fromLane="1" toLane="1" dir="s" state="M"/>
    <connection from=":4_2" to="gneE4" fromLane="0" toLane="0" dir="s" state="M"/>
    <connection from=":4_2" to="gneE4" fromLane="1" toLane="1" dir="s" state="M"/>
    <connection from=":5_0" to="-gneE4" fromLane="0" toLane="0" dir="s" state="M"/>
    <connection from=":5_0" to="-gneE4" fromLane="1" toLane="1" dir="s" state="M"/>
    <connection from=":5_2" to="gneE5" fromLane="0" toLane="0" dir="s" state="M"/>
    <connection from=":5_2" to="gneE5" fromLane="1" toLane="1" dir="s" state="M"/>
    <connection from=":6_0" to="-gneE5" fromLane="0" toLane="0" dir="s" state="M"/>
    <connection from=":6_0" to="-gneE5" fromLane="1" toLane="1" dir="s" state="M"/>
    <connection from=":6_2" to="gneE6" fromLane="0" toLane="0" dir="s" state="M"/>
    <connection from=":6_2" to="gneE6" fromLane="1" toLane="1" dir="s" state="M"/>
    <connection from=":7_0" to="-gneE6" fromLane="0" toLane="0" dir="s" state="M"/>
    <connection from=":7_0" to="-gneE6" fromLane="1" toLane="1" dir="s" state="M"/>
    <connection from=":7_2" to="gneE7" fromLane="0" toLane="0" dir="s" state="M"/>
    <connection from=":7_2" to="gneE7" fromLane="1" toLane="1" dir="s" state="M"/>

</net>
